12
C4H8
 C       1.7760       0.0157      -0.2840
 C       0.6750      -0.3099       0.3469
 C      -0.5465       0.5651       0.2315
 C      -1.7311      -0.2741      -0.2516
 H       1.8082       0.9113      -0.8869
 H       2.6527      -0.6089      -0.1977
 H       0.6428      -1.2054       0.9498
 H      -0.7790       0.9949       1.2058
 H      -0.3536       1.3660      -0.4823
 H      -1.4986      -0.7039      -1.2259
 H      -1.9240      -1.0750       0.4622
 H      -2.6147       0.3587      -0.3351
