15
C4H10O
 C       1.2110      -0.5000      -0.0000
 C      -0.0529       0.3621       0.0000
 C      -1.2871      -0.5422       0.0000
 C      -2.5511       0.3199      -0.0000
 O       2.3637       0.3446       0.0000
 H       1.2217      -1.1292       0.8900
 H       1.2217      -1.1292      -0.8900
 H      -0.0636       0.9914       0.8900
 H      -0.0636       0.9914      -0.8900
 H      -1.2764      -1.1714      -0.8900
 H      -1.2764      -1.1714       0.8900
 H      -2.5617       0.9491       0.8900
 H      -2.5617       0.9491      -0.8900
 H      -3.4303      -0.3243      -0.0000
 H       3.2031      -0.1354      -0.0000
