15
C4H10O
 C       1.7137      -0.7924      -0.0048
 C       0.4407      -0.0113      -0.3367
 C      -0.7644      -0.7052       0.3014
 C      -2.0494       0.0031      -0.1324
 O       0.5507       1.3184       0.1750
 H       1.8460      -0.8290       1.0766
 H       1.6297      -1.8067      -0.3950
 H       2.5722      -0.2981      -0.4594
 H       0.3084       0.0252      -1.4180
 H      -0.7968      -1.7461      -0.0205
 H      -0.6751      -0.6632       1.3869
 H      -2.0170       1.0439       0.1895
 H      -2.1387      -0.0389      -1.2179
 H      -2.9079      -0.4913       0.3222
 H       1.2950       1.8187      -0.1868
