10
C3H6O
 C       1.3051      -0.6772      -0.0000
 C       0.0000       0.0763      -0.0000
 O      -0.0000       1.2839       0.0000
 C      -1.3051      -0.6772       0.0000
 H       1.6198      -0.8588       1.0277
 H       1.1748      -1.6296      -0.5138
 H       2.0647      -0.0881      -0.5138
 H      -1.1059      -1.7488      -0.0000
 H      -1.8767      -0.4138       0.8900
 H      -1.8767      -0.4138      -0.8900
