12
C4H8
 C       3.0000       0.5000       0.0000
 C       3.0000      -0.5000       0.0000
 C       2.0000      -0.5000       0.0000
 C       2.0000       0.5000       0.0000
 H       3.6200       0.5000       0.0000
 H       3.0000       1.1200       0.0000
 H       3.0000      -1.1200       0.0000
 H       3.6200      -0.5000       0.0000
 H       1.3800      -0.5000       0.0000
 H       2.0000      -1.1200       0.0000
 H       2.0000       1.1200       0.0000
 H       1.3800       0.5000       0.0000
