10
C4H6
 C       3.0000       0.5000       0.0000
 C       3.0000      -0.5000       0.0000
 C       2.0000      -0.5000       0.0000
 C       2.0000       0.5000       0.0000
 H       3.4384       0.9384       0.0000
 H       3.4384      -0.9384       0.0000
 H       1.3800      -0.5000       0.0000
 H       2.0000      -1.1200       0.0000
 H       2.0000       1.1200       0.0000
 H       1.3800       0.5000       0.0000
