8
C2H6
 C       0.7650       0.0000      -0.0000
 C      -0.7650      -0.0000      -0.0000
 H       1.1283      -0.5138       0.8900
 H       1.1283      -0.5138      -0.8900
 H       1.1283       1.0277       0.0000
 H      -1.1283       0.5138       0.8900
 H      -1.1283       0.5138      -0.8900
 H      -1.1283      -1.0277       0.0000
