12
C4H8
 C       0.0000       1.3865       0.0003
 C      -0.0000       0.0765       0.0001
 C      -1.3051      -0.6770       0.0000
 C       1.3051      -0.6770      -0.0001
 H       0.9353       1.9265       0.0004
 H      -0.9353       1.9265      -0.0040
 H      -1.6198      -0.8585      -1.0276
 H      -1.1747      -1.6295       0.5137
 H      -2.0647      -0.0880       0.5141
 H       1.6198      -0.8589       1.0275
 H       1.1747      -1.6293      -0.5142
 H       2.0647      -0.0878      -0.5139
