7
C3H4
 C       2.5369      -0.3450       0.0000
 C       3.4030       0.1550       0.0000
 C       4.2690       0.6550       0.0000
 H       2.0000      -0.6550       0.0000
 H       4.5790       0.1181       0.0000
 H       4.8059       0.9650       0.0000
 H       3.9590       1.1919       0.0000
