12
C3H8O
 C       3.4030      -0.2500       0.0000
 C       4.2690       0.2500       0.0000
 C       5.1350      -0.2500       0.0000
 O       2.5369       0.2500       0.0000
 H       3.0044      -0.7249       0.0000
 H       3.8015      -0.7249       0.0000
 H       4.6675       0.7249       0.0000
 H       3.8705       0.7249       0.0000
 H       4.8250      -0.7869       0.0000
 H       5.6719      -0.5600       0.0000
 H       5.4450       0.2869       0.0000
 H       2.0000      -0.0600       0.0000
