9
C3H6
 C       3.7321       0.2500       0.0000
 C       2.8660      -0.2500       0.0000
 C       2.0000       0.2500       0.0000
 H       4.2690      -0.0600       0.0000
 H       3.7321       0.8700       0.0000
 H       2.8660      -0.8700       0.0000
 H       2.3100       0.7869       0.0000
 H       1.4631       0.5600       0.0000
 H       1.6900      -0.2869       0.0000
