10
C4H2O4
 H       2.5481       1.3144      -0.0009
 H      -2.5473       1.3158       0.0008
 O       1.6169      -1.6430       0.0015
 O      -1.6178      -1.6421      -0.0006
 O       1.6402       1.6474      -0.0004
 O      -1.6393       1.6483       0.0009
 C       0.7442      -0.7961      -0.0013
 C      -0.7447      -0.7957      -0.0003
 C       0.6997       0.6782      -0.0006
 C      -0.6993       0.6786       0.0004
