15
C7H8
 C      -0.9259      -0.0000       0.0024
 C      -0.2347      -1.1972       0.0012
 C       1.1476      -1.1972      -0.0003
 C       1.8388       0.0000      -0.0012
 C       1.1476       1.1972      -0.0010
 C      -0.2347       1.1972       0.0020
 C      -2.4329      -0.0000      -0.0023
 H      -0.7747      -2.1325       0.0019
 H       1.6876      -2.1325      -0.0005
 H       2.9188       0.0000      -0.0017
 H       1.6876       2.1325      -0.0010
 H      -0.7747       2.1325       0.0025
 H      -2.7994      -0.0028       1.0242
 H      -2.7946       0.8914      -0.5148
 H      -2.7946      -0.8886      -0.5196
