12
C4H8
 C       1.9181      -0.0894      -0.0000
 C       0.5007       0.4223       0.0000
 C      -0.5007      -0.4223       0.0000
 C      -1.9181       0.0894      -0.0000
 H       2.0854      -0.6961       0.8900
 H       2.0854      -0.6961      -0.8900
 H       2.6088       0.7538      -0.0000
 H       0.3104       1.4854       0.0000
 H      -0.3104      -1.4854       0.0000
 H      -2.0854       0.6961      -0.8900
 H      -2.6088      -0.7538      -0.0000
 H      -2.0854       0.6961       0.8900
