15
C5H10
 C       5.4641      -0.2500       0.0000
 C       4.5981       0.2500       0.0000
 C       3.7321      -0.2500       0.0000
 C       2.8660       0.2500       0.0000
 C       2.0000      -0.2500       0.0000
 H       5.1541      -0.7869       0.0000
 H       6.0010      -0.5600       0.0000
 H       5.7741       0.2869       0.0000
 H       4.5981       0.8700       0.0000
 H       3.7321      -0.8700       0.0000
 H       3.2646       0.7249       0.0000
 H       2.4675       0.7249       0.0000
 H       1.6900       0.2869       0.0000
 H       1.4631      -0.5600       0.0000
 H       2.3100      -0.7869       0.0000
